Version 4
SHEET 1 880 680
WIRE -608 -576 -608 -608
WIRE -448 -576 -448 -608
WIRE -448 -480 -448 -496
WIRE -352 -480 -448 -480
WIRE -816 -448 -896 -448
WIRE -720 -448 -736 -448
WIRE -608 -448 -608 -496
WIRE -608 -448 -656 -448
WIRE -448 -448 -448 -480
WIRE 16 -448 16 -576
WIRE -608 -416 -608 -448
WIRE -528 -416 -608 -416
WIRE -496 -416 -528 -416
WIRE -32 -416 -96 -416
WIRE -896 -400 -896 -448
WIRE -448 -352 -448 -384
WIRE -352 -352 -448 -352
WIRE 16 -352 16 -384
WIRE 112 -352 16 -352
WIRE -608 -320 -608 -416
WIRE -448 -320 -448 -352
WIRE -352 -304 -352 -352
WIRE 16 -304 16 -352
WIRE -896 -288 -896 -320
WIRE 208 -272 208 -320
WIRE 208 -208 208 -272
WIRE -608 -192 -608 -240
WIRE -448 -192 -448 -240
WIRE -352 -192 -352 -240
WIRE 16 -176 16 -224
WIRE 208 -96 208 -128
FLAG -896 -288 0
FLAG -608 -192 0
FLAG -448 -192 0
FLAG -352 -192 0
FLAG -608 -608 VCC
FLAG -448 -608 VCC
FLAG -352 -480 Vout1
FLAG -528 -416 Vb
FLAG 16 -176 0
FLAG 16 -576 VCC
FLAG 112 -352 Vout2
FLAG -96 -416 Vout1
FLAG -1040 -400 VCC
FLAG -1040 -320 0
FLAG 208 -96 0
FLAG 208 -272 test
DATAFLAG -896 -448 ""
DATAFLAG -608 -416 "round($*1000)/1000"
DATAFLAG -448 -480 "round($*1000)/1000"
DATAFLAG -448 -352 "round($*1000)/1000"
DATAFLAG 16 -352 "round($*1000)/1000"
SYMBOL res -624 -336 R0
WINDOW 3 36 68 Invisible 2
SYMATTR Value {Rb2}
SYMATTR InstName Rb2
SYMBOL res -624 -592 R0
WINDOW 3 36 68 Invisible 2
SYMATTR Value {Rb1}
SYMATTR InstName Rb1
SYMBOL res -464 -336 R0
WINDOW 3 36 68 Invisible 2
SYMATTR Value {Re}
SYMATTR InstName Re
SYMBOL res -464 -592 R0
WINDOW 3 36 68 Invisible 2
SYMATTR Value {Rc}
SYMATTR InstName Rc
SYMBOL cap -656 -464 R90
WINDOW 0 0 32 VBottom 2
WINDOW 3 28 32 Invisible 2
SYMATTR InstName CAC
SYMATTR Value {CAC}
SYMBOL res -720 -464 R90
WINDOW 0 0 56 VBottom 2
WINDOW 3 59 56 Invisible 2
SYMATTR InstName Rs
SYMATTR Value {Rs}
SYMBOL voltage -896 -416 R0
WINDOW 0 -46 15 Left 2
WINDOW 39 0 0 Left 0
SYMATTR InstName Vs
SYMATTR Value ""
SYMATTR Value2 AC 1
SYMBOL cap -368 -304 R0
WINDOW 3 24 36 Invisible 2
SYMATTR Value {Cac2}
SYMATTR InstName Cac2
SYMBOL res 0 -320 R0
WINDOW 3 36 68 Invisible 2
SYMATTR Value {Re2}
SYMATTR InstName Re2
SYMBOL 2SC3324 -480 -432 R0
WINDOW 0 51 -18 Invisible 2
SYMATTR InstName U1
SYMBOL 2SC3324 -16 -432 R0
WINDOW 0 40 -16 Invisible 2
SYMATTR InstName U2
SYMBOL voltage -1040 -416 R0
WINDOW 123 0 0 Left 0
WINDOW 39 0 0 Left 0
WINDOW 0 24 16 Invisible 2
WINDOW 3 31 19 Left 2
SYMATTR InstName V1
SYMATTR Value 9
SYMBOL voltage 208 -224 R0
WINDOW 0 -46 15 Left 2
WINDOW 39 0 0 Left 0
SYMATTR InstName test
SYMATTR Value ""
SYMATTR Value2 AC 1
TEXT -952 64 Left 2 !;op\n;ac dec 100 .01 10e6\n.noise V(vout2) Vs dec 100 1 100e6
TEXT -952 -24 Left 2 !.param Rs=1000 CAC=5n Rb1=16k Rb2=16k Rc=9K Re=12K Cac2=1u Re2=30
